Version 4
SHEET 1 880 680
WIRE -192 -144 -256 -144
WIRE 32 -144 -112 -144
WIRE 80 -144 32 -144
WIRE 304 -144 160 -144
WIRE -256 -112 -256 -144
WIRE 160 -80 80 -80
WIRE 80 -64 80 -80
WIRE 160 16 160 -80
WIRE 80 32 80 16
WIRE 32 64 32 -144
WIRE 80 64 32 64
WIRE 304 96 304 -144
WIRE 304 96 240 96
WIRE 496 96 304 96
WIRE 80 128 16 128
WIRE 16 176 16 128
WIRE 160 192 160 176
WIRE 16 304 16 256
WIRE 160 304 160 272
FLAG 16 304 0
FLAG 160 304 0
FLAG 80 32 0
FLAG -256 -112 0
SYMBOL res 176 -160 R90
WINDOW 0 0 56 VBottom 2
WINDOW 3 32 56 VTop 2
SYMATTR InstName R1
SYMATTR Value 5k
SYMBOL voltage 16 160 R0
WINDOW 123 0 0 Left 0
WINDOW 39 0 0 Left 0
SYMATTR InstName V1
SYMATTR Value SINE(0 0.05 10k)
SYMBOL voltage 80 -80 R0
WINDOW 123 0 0 Left 0
WINDOW 39 0 0 Left 0
SYMATTR InstName V2
SYMATTR Value 2.5
SYMBOL voltage 160 176 R0
WINDOW 123 0 0 Left 0
WINDOW 39 0 0 Left 0
SYMATTR InstName V3
SYMATTR Value -2.5
SYMBOL res -96 -160 R90
WINDOW 0 0 56 VBottom 2
WINDOW 3 32 56 VTop 2
SYMATTR InstName R2
SYMATTR Value 1k
SYMBOL OPAMP 48 96 R0
SYMATTR InstName X1
TEXT -272 328 Left 2 !.tran 1m
