Version 4
SHEET 1 880 680
WIRE -368 -176 -432 -176
WIRE -224 -176 -288 -176
WIRE -80 -176 -144 -176
WIRE -32 -176 -80 -176
WIRE 192 -176 48 -176
WIRE -432 -144 -432 -176
WIRE 48 -112 -32 -112
WIRE -32 -96 -32 -112
WIRE 48 -16 48 -112
WIRE -32 0 -32 -16
WIRE -80 32 -80 -176
WIRE -32 32 -80 32
WIRE 192 64 192 -176
WIRE 192 64 128 64
WIRE 384 64 192 64
WIRE -32 96 -96 96
WIRE 48 160 48 144
WIRE -96 272 -96 96
WIRE 48 272 48 240
FLAG -96 272 0
FLAG 48 272 0
FLAG -32 0 0
FLAG -432 -144 0
SYMBOL res 64 -192 R90
WINDOW 0 0 56 VBottom 2
WINDOW 3 32 56 VTop 2
SYMATTR InstName R1
SYMATTR Value 3k
SYMBOL voltage -272 -176 R90
WINDOW 123 24 44 Left 2
WINDOW 39 0 0 Left 0
SYMATTR InstName V1
SYMATTR Value SINE(0 0.05 10k)
SYMBOL voltage -32 -112 R0
WINDOW 123 0 0 Left 0
WINDOW 39 0 0 Left 0
SYMATTR InstName V2
SYMATTR Value 2.5
SYMBOL voltage 48 144 R0
WINDOW 123 0 0 Left 0
WINDOW 39 0 0 Left 0
SYMATTR InstName V3
SYMATTR Value -2.5
SYMBOL res -128 -192 R90
WINDOW 0 0 56 VBottom 2
WINDOW 3 32 56 VTop 2
SYMATTR InstName R2
SYMATTR Value 1k
SYMBOL OPAMP -64 64 R0
SYMATTR InstName X1
TEXT -384 296 Left 2 !.tran 1m
