Version 4
SHEET 1 880 680
WIRE 400 -96 128 -96
WIRE 256 -32 176 -32
WIRE 176 -16 176 -32
WIRE 256 64 256 -32
WIRE 176 80 176 64
WIRE 128 112 128 -96
WIRE 176 112 128 112
WIRE 400 144 400 -96
WIRE 400 144 336 144
WIRE 592 144 400 144
WIRE 176 176 112 176
WIRE 112 208 112 176
WIRE 256 240 256 224
WIRE 112 352 112 288
WIRE 256 352 256 320
FLAG 112 352 0
FLAG 256 352 0
FLAG 176 80 0
SYMBOL voltage 112 192 R0
WINDOW 123 24 44 Left 2
WINDOW 39 0 0 Left 0
SYMATTR InstName V1
SYMATTR Value SINE(0 0.05 10k)
SYMBOL voltage 176 -32 R0
WINDOW 123 0 0 Left 0
WINDOW 39 0 0 Left 0
SYMATTR InstName V2
SYMATTR Value 2.5
SYMBOL voltage 256 224 R0
WINDOW 123 0 0 Left 0
WINDOW 39 0 0 Left 0
SYMATTR InstName V3
SYMATTR Value -2.5
SYMBOL OPAMP 144 144 R0
SYMATTR InstName X1
TEXT -176 376 Left 2 !.tran 1m
