Version 4
SHEET 1 880 680
WIRE 224 -32 144 -32
WIRE 144 -16 144 -32
WIRE 224 64 224 -32
WIRE 144 80 144 64
WIRE 144 112 -48 112
WIRE -48 144 -48 112
WIRE 560 144 304 144
WIRE 144 176 80 176
WIRE 80 208 80 176
WIRE 224 240 224 224
WIRE -48 352 -48 224
WIRE 80 352 80 288
WIRE 224 352 224 320
FLAG 80 352 0
FLAG 224 352 0
FLAG 144 80 0
FLAG -48 352 0
SYMBOL voltage 80 192 R0
WINDOW 123 24 44 Left 2
WINDOW 39 0 0 Left 0
SYMATTR InstName V1
SYMATTR Value SINE(0 2 10k)
SYMBOL voltage 144 -32 R0
WINDOW 123 0 0 Left 0
WINDOW 39 0 0 Left 0
SYMATTR InstName V2
SYMATTR Value 2.5
SYMBOL voltage 224 224 R0
WINDOW 123 0 0 Left 0
WINDOW 39 0 0 Left 0
SYMATTR InstName V3
SYMATTR Value -2.5
SYMBOL OPAMP 112 144 R0
SYMATTR InstName X1
SYMBOL voltage -48 128 R0
WINDOW 123 24 44 Left 2
WINDOW 39 0 0 Left 0
SYMATTR InstName V4
SYMATTR Value 1
TEXT -208 376 Left 2 !.tran 1m
