Version 4
SHEET 1 880 680
WIRE -144 -592 -208 -592
WIRE 0 -592 -64 -592
WIRE 160 -592 80 -592
WIRE -208 -560 -208 -592
WIRE -128 -304 -192 -304
WIRE 16 -304 -48 -304
WIRE 160 -304 160 -592
WIRE 160 -304 96 -304
WIRE -192 -272 -192 -304
WIRE -128 -80 -192 -80
WIRE 16 -80 -48 -80
WIRE 160 -80 160 -304
WIRE 160 -80 96 -80
WIRE 208 -80 160 -80
WIRE 432 -80 288 -80
WIRE -192 -48 -192 -80
WIRE 288 -16 208 -16
WIRE 208 0 208 -16
WIRE 288 80 288 -16
WIRE 208 96 208 80
WIRE 160 128 160 -80
WIRE 208 128 160 128
WIRE 432 160 432 -80
WIRE 432 160 368 160
WIRE 624 160 432 160
WIRE 208 192 144 192
WIRE 288 256 288 240
WIRE 144 368 144 192
WIRE 288 368 288 336
FLAG 144 368 0
FLAG 288 368 0
FLAG 208 96 0
FLAG -192 -48 0
FLAG -192 -272 0
FLAG -208 -560 0
SYMBOL res 304 -96 R90
WINDOW 0 0 56 VBottom 2
WINDOW 3 32 56 VTop 2
SYMATTR InstName R1
SYMATTR Value 1k
SYMBOL voltage -32 -80 R90
WINDOW 123 24 44 Left 2
WINDOW 39 0 0 Left 0
SYMATTR InstName V1
SYMATTR Value SINE(0 0.02 10k)
SYMBOL voltage 208 -16 R0
WINDOW 123 0 0 Left 0
WINDOW 39 0 0 Left 0
SYMATTR InstName V2
SYMATTR Value 2.5
SYMBOL voltage 288 240 R0
WINDOW 123 0 0 Left 0
WINDOW 39 0 0 Left 0
SYMATTR InstName V3
SYMATTR Value -2.5
SYMBOL res 112 -96 R90
WINDOW 0 0 56 VBottom 2
WINDOW 3 32 56 VTop 2
SYMATTR InstName R2
SYMATTR Value 1k
SYMBOL OPAMP 176 160 R0
SYMATTR InstName X1
SYMBOL voltage -32 -304 R90
WINDOW 123 24 44 Left 2
WINDOW 39 0 0 Left 0
SYMATTR InstName V4
SYMATTR Value SINE(0 0.01 10k)
SYMBOL res 112 -320 R90
WINDOW 0 0 56 VBottom 2
WINDOW 3 32 56 VTop 2
SYMATTR InstName R3
SYMATTR Value 1k
SYMBOL voltage -48 -592 R90
WINDOW 123 24 44 Left 2
WINDOW 39 0 0 Left 0
SYMATTR InstName V5
SYMATTR Value SINE(0 0.03 10k)
SYMBOL res 96 -608 R90
WINDOW 0 0 56 VBottom 2
WINDOW 3 32 56 VTop 2
SYMATTR InstName R4
SYMATTR Value 1k
TEXT -144 392 Left 2 !.tran 1m
