Version 4
SHEET 1 880 1236
WIRE -96 -96 -160 -96
WIRE 128 -96 -16 -96
WIRE 176 -96 128 -96
WIRE 400 -96 256 -96
WIRE -160 -64 -160 -96
WIRE 256 -32 176 -32
WIRE 176 -16 176 -32
WIRE 256 64 256 -32
WIRE 176 80 176 64
WIRE 128 112 128 -96
WIRE 176 112 128 112
WIRE 400 144 400 -96
WIRE 400 144 336 144
WIRE 592 144 400 144
WIRE -240 176 -304 176
WIRE -96 176 -160 176
WIRE 64 176 -16 176
WIRE 80 176 64 176
WIRE 176 176 160 176
WIRE -304 208 -304 176
WIRE 256 240 256 224
WIRE 256 352 256 320
WIRE -224 464 -288 464
WIRE -80 464 -144 464
WIRE 64 464 64 176
WIRE 64 464 0 464
WIRE -288 496 -288 464
WIRE -224 688 -288 688
WIRE -80 688 -144 688
WIRE 64 688 64 464
WIRE 64 688 0 688
WIRE -288 720 -288 688
FLAG 256 352 0
FLAG 176 80 0
FLAG -160 -64 0
FLAG -288 720 0
FLAG -288 496 0
FLAG -304 208 0
SYMBOL res 272 -112 R90
WINDOW 0 0 56 VBottom 2
WINDOW 3 32 56 VTop 2
SYMATTR InstName R1
SYMATTR Value 1k
SYMBOL voltage 176 -32 R0
WINDOW 123 0 0 Left 0
WINDOW 39 0 0 Left 0
SYMATTR InstName V2
SYMATTR Value 2.5
SYMBOL voltage 256 224 R0
WINDOW 123 0 0 Left 0
WINDOW 39 0 0 Left 0
SYMATTR InstName V3
SYMATTR Value -2.5
SYMBOL res 0 -112 R90
WINDOW 0 0 56 VBottom 2
WINDOW 3 32 56 VTop 2
SYMATTR InstName R2
SYMATTR Value 1k
SYMBOL OPAMP 144 144 R0
SYMATTR InstName X1
SYMBOL voltage -128 688 R90
WINDOW 123 24 44 Left 2
WINDOW 39 0 0 Left 0
SYMATTR InstName V6
SYMATTR Value SINE(0 0.02 10k)
SYMBOL res 16 672 R90
WINDOW 0 0 56 VBottom 2
WINDOW 3 32 56 VTop 2
SYMATTR InstName R3
SYMATTR Value 1k
SYMBOL voltage -128 464 R90
WINDOW 123 24 44 Left 2
WINDOW 39 0 0 Left 0
SYMATTR InstName V7
SYMATTR Value SINE(0 0.05 10k)
SYMBOL res 16 448 R90
WINDOW 0 0 56 VBottom 2
WINDOW 3 32 56 VTop 2
SYMATTR InstName R4
SYMATTR Value 1k
SYMBOL voltage -144 176 R90
WINDOW 123 24 44 Left 2
WINDOW 39 0 0 Left 0
SYMATTR InstName V8
SYMATTR Value SINE(0 0.03 10k)
SYMBOL res 0 160 R90
WINDOW 0 0 56 VBottom 2
WINDOW 3 32 56 VTop 2
SYMATTR InstName R5
SYMATTR Value 1k
SYMBOL res 176 160 R90
WINDOW 0 0 56 VBottom 2
WINDOW 3 32 56 VTop 2
SYMATTR InstName R6
SYMATTR Value 1k
TEXT 712 376 Left 2 !.tran 1m
