Version 4
SHEET 1 880 680
WIRE -288 -96 -304 -96
WIRE -96 -96 -208 -96
WIRE 80 -96 -16 -96
WIRE 224 -96 80 -96
WIRE 352 -96 288 -96
WIRE -304 -64 -304 -96
WIRE 208 -32 128 -32
WIRE 128 -16 128 -32
WIRE 208 64 208 -32
WIRE 128 80 128 64
WIRE 80 112 80 -96
WIRE 128 112 80 112
WIRE 352 144 352 -96
WIRE 352 144 288 144
WIRE 544 144 352 144
WIRE 128 176 64 176
WIRE 208 240 208 224
WIRE 64 352 64 176
WIRE 208 352 208 320
FLAG 64 352 0
FLAG 208 352 0
FLAG 128 80 0
FLAG -304 -64 0
SYMBOL voltage -192 -96 R90
WINDOW 123 0 0 Left 0
WINDOW 39 0 0 Left 0
SYMATTR InstName V1
SYMATTR Value PULSE(-0.01 0.01 0 1n 1n 0.5m 1m)
SYMBOL voltage 128 -32 R0
WINDOW 123 0 0 Left 0
WINDOW 39 0 0 Left 0
SYMATTR InstName V2
SYMATTR Value 2.5
SYMBOL voltage 208 224 R0
WINDOW 123 0 0 Left 0
WINDOW 39 0 0 Left 0
SYMATTR InstName V3
SYMATTR Value -2.5
SYMBOL OPAMP 96 144 R0
SYMATTR InstName X1
SYMBOL cap 288 -112 R90
WINDOW 0 0 32 VBottom 2
WINDOW 3 32 32 VTop 2
SYMATTR InstName C2
SYMATTR Value 20n
SYMBOL res 0 -112 R90
WINDOW 0 0 56 VBottom 2
WINDOW 3 32 56 VTop 2
SYMATTR InstName R2
SYMATTR Value 500
TEXT -224 376 Left 2 !.tran 5m
