Version 4
SHEET 1 880 680
WIRE 224 -112 144 -112
WIRE 144 -96 144 -112
WIRE 224 -16 224 -112
WIRE 144 0 144 -16
WIRE 144 32 -16 32
WIRE -16 48 -16 32
WIRE 400 64 304 64
WIRE 144 96 80 96
WIRE 80 144 80 96
WIRE 224 160 224 144
WIRE -16 176 -16 128
WIRE 80 272 80 224
WIRE 224 272 224 240
FLAG -16 176 0
FLAG 80 272 0
FLAG 224 272 0
FLAG 144 0 0
SYMBOL voltage 144 -112 R0
WINDOW 123 0 0 Left 0
WINDOW 39 0 0 Left 0
SYMATTR InstName V3
SYMATTR Value 2.5
SYMBOL voltage -16 32 R0
WINDOW 123 0 0 Left 0
WINDOW 39 0 0 Left 0
SYMATTR InstName V1
SYMATTR Value 1
SYMBOL voltage 80 128 R0
WINDOW 123 24 124 Left 2
WINDOW 39 24 124 Left 2
SYMATTR Value2 AC 1
SYMATTR InstName V2
SYMATTR Value SINE(1 1 12K)
SYMBOL voltage 224 144 R0
WINDOW 123 0 0 Left 0
WINDOW 39 0 0 Left 0
SYMATTR InstName V4
SYMATTR Value -2.5
SYMBOL OPAMP 112 64 R0
SYMATTR InstName X2
TEXT 448 112 Left 2 !.ac dec 10 1 100000000
