Version 4
SHEET 1 880 680
WIRE 224 -176 64 -176
WIRE 496 -176 304 -176
WIRE 272 -112 192 -112
WIRE 192 -96 192 -112
WIRE 272 -16 272 -112
WIRE 192 0 192 -16
WIRE -128 32 -176 32
WIRE 64 32 64 -176
WIRE 64 32 -48 32
WIRE 192 32 64 32
WIRE -176 64 -176 32
WIRE 496 64 496 -176
WIRE 496 64 352 64
WIRE 608 64 496 64
WIRE 160 96 128 96
WIRE 192 96 160 96
WIRE 48 128 48 96
WIRE 160 144 160 96
WIRE 272 160 272 144
WIRE -176 272 -176 144
WIRE 48 272 48 208
WIRE 160 272 160 224
WIRE 272 272 272 240
FLAG 48 272 0
FLAG 272 272 0
FLAG 192 0 0
FLAG -176 272 0
FLAG 160 272 0
SYMBOL voltage 48 112 R0
WINDOW 123 24 44 Left 2
WINDOW 39 0 0 Left 0
SYMATTR InstName V1
SYMATTR Value SINE(0 2 10k)
SYMBOL voltage 192 -112 R0
WINDOW 123 0 0 Left 0
WINDOW 39 0 0 Left 0
SYMATTR InstName V2
SYMATTR Value 2.5
SYMBOL voltage 272 144 R0
WINDOW 123 0 0 Left 0
WINDOW 39 0 0 Left 0
SYMATTR InstName V3
SYMATTR Value -2.5
SYMBOL OPAMP 160 64 R0
SYMATTR InstName X1
SYMBOL voltage -176 48 R0
WINDOW 123 24 44 Left 2
WINDOW 39 0 0 Left 0
SYMATTR InstName V4
SYMATTR Value SINE(0 1 10k)
SYMBOL res 144 128 R0
SYMATTR InstName R1
SYMATTR Value 2k
SYMBOL res 320 -192 R90
WINDOW 0 0 56 VBottom 2
WINDOW 3 32 56 VTop 2
SYMATTR InstName R2
SYMATTR Value 1k
SYMBOL res -32 16 R90
WINDOW 0 0 56 VBottom 2
WINDOW 3 32 56 VTop 2
SYMATTR InstName R3
SYMATTR Value 1k
SYMBOL res 144 80 R90
WINDOW 0 0 56 VBottom 2
WINDOW 3 32 56 VTop 2
SYMATTR InstName R4
SYMATTR Value 1k
TEXT -160 296 Left 2 !.tran 1m
