Version 4
SHEET 1 880 680
WIRE -128 -96 -192 -96
WIRE 96 -96 -48 -96
WIRE 144 -96 96 -96
WIRE 368 -96 224 -96
WIRE -192 -64 -192 -96
WIRE 224 -32 144 -32
WIRE 144 -16 144 -32
WIRE 224 64 224 -32
WIRE 144 80 144 64
WIRE 96 112 96 -96
WIRE 144 112 96 112
WIRE 368 144 368 -96
WIRE 368 144 304 144
WIRE 560 144 368 144
WIRE 144 176 80 176
WIRE 80 224 80 176
WIRE 224 240 224 224
WIRE 80 352 80 304
WIRE 224 352 224 320
FLAG 80 352 0
FLAG 224 352 0
FLAG 144 80 0
FLAG -192 -64 0
SYMBOL res 240 -112 R90
WINDOW 0 0 56 VBottom 2
WINDOW 3 32 56 VTop 2
SYMATTR InstName R1
SYMATTR Value 5k
SYMBOL voltage 80 208 R0
WINDOW 123 0 0 Left 0
WINDOW 39 0 0 Left 0
SYMATTR InstName V1
SYMATTR Value SINE(0 0.05 10k)
SYMBOL voltage 144 -32 R0
WINDOW 123 0 0 Left 0
WINDOW 39 0 0 Left 0
SYMATTR InstName V2
SYMATTR Value 2.5
SYMBOL voltage 224 224 R0
WINDOW 123 0 0 Left 0
WINDOW 39 0 0 Left 0
SYMATTR InstName V3
SYMATTR Value -2.5
SYMBOL res -32 -112 R90
WINDOW 0 0 56 VBottom 2
WINDOW 3 32 56 VTop 2
SYMATTR InstName R2
SYMATTR Value 1k
SYMBOL OPAMP 112 144 R0
SYMATTR InstName X1
TEXT -208 376 Left 2 !.tran 1m
