Version 4
SHEET 1 880 788
WIRE -432 -272 -544 -272
WIRE -544 -224 -544 -272
WIRE -32 -176 -32 -320
WIRE -112 -128 -224 -128
WIRE 224 -96 48 -96
WIRE 336 -96 288 -96
WIRE -544 -64 -544 -144
WIRE -400 -64 -544 -64
WIRE -112 -64 -224 -64
WIRE 336 -32 336 -96
WIRE -544 32 -544 -64
WIRE -32 64 -32 -16
WIRE -32 96 -32 64
WIRE -544 160 -544 112
WIRE 16 192 16 176
WIRE 16 256 16 192
WIRE 288 256 288 240
WIRE 288 272 288 256
WIRE 288 448 288 352
WIRE 16 528 16 336
WIRE 288 560 288 528
WIRE 16 640 16 608
FLAG -544 160 0
FLAG 288 560 0
FLAG 336 -32 0
FLAG 16 640 0
FLAG -400 -64 VCM
FLAG -224 -128 VCM
FLAG -224 -64 VIP
FLAG -432 -272 VIP
FLAG 16 192 VDD
FLAG -32 -320 VDD
FLAG -32 64 VSS
FLAG 288 256 VSS
DATAFLAG 208 -96 ""
SYMBOL OPAMP -144 -96 R0
SYMATTR InstName X1
SYMBOL voltage -544 -240 R0
WINDOW 123 24 124 Left 2
WINDOW 39 0 0 Left 0
SYMATTR Value2 AC {VID_AC}
SYMATTR InstName VIP
SYMATTR Value 0
SYMBOL voltage -544 16 R0
WINDOW 123 24 124 Left 2
WINDOW 39 0 0 Left 0
SYMATTR Value2 AC {VID_AC}
SYMATTR InstName V2
SYMATTR Value 0
SYMBOL voltage 288 256 R0
WINDOW 123 24 124 Left 2
WINDOW 39 0 0 Left 0
SYMATTR Value2 AC {NPS_AC}
SYMATTR InstName V3
SYMATTR Value 0
SYMBOL voltage 288 432 R0
WINDOW 123 0 0 Left 0
WINDOW 39 0 0 Left 0
SYMATTR InstName VSS
SYMATTR Value -2.5
SYMBOL cap 288 -112 R90
WINDOW 0 0 32 VBottom 2
WINDOW 3 32 32 VTop 2
SYMATTR InstName C1
SYMATTR Value 10p
SYMBOL voltage 16 240 R0
WINDOW 123 24 124 Left 2
WINDOW 39 0 0 Left 0
SYMATTR Value2 AC {PPS_AC}
SYMATTR InstName PPS
SYMATTR Value 0
SYMBOL voltage 16 512 R0
WINDOW 123 0 0 Left 0
WINDOW 39 0 0 Left 0
SYMATTR InstName VDD
SYMATTR Value 2.5
TEXT -712 368 Left 2 !.ac dec 1000 1 100MEG
TEXT -776 584 Left 2 !.param VCM=0\n.step param M 1 4 1\n.param VID_AC=table{M,1,1,2,0,3,0,4,0}\n.param VCM_AC=table{M,1,0,2,1,3,0,4,0}\n.param PPS_AC=table{M,1,0,2,0,3,1,4,0}\n.param NPS_AC=table{M,1,0,2,0,3,0,4,1}
