Version 4
SHEET 1 880 680
WIRE 400 -224 32 -224
WIRE 224 -176 128 -176
WIRE 128 -112 128 -176
WIRE 128 0 128 -32
WIRE 224 16 224 -176
WIRE 224 32 224 16
WIRE 32 80 32 -224
WIRE 144 80 32 80
WIRE 400 112 400 -224
WIRE 400 112 304 112
WIRE 560 112 400 112
WIRE 720 112 560 112
WIRE 144 144 96 144
WIRE 96 224 96 144
WIRE 560 224 560 112
WIRE 224 288 224 192
WIRE 560 304 560 288
WIRE 96 336 96 304
FLAG 96 336 0
FLAG 128 0 0
FLAG 224 368 0
FLAG 560 304 0
FLAG 224 16 X2
SYMBOL OPAMP 112 112 R0
SYMATTR InstName X1
SYMBOL voltage 96 208 R0
WINDOW 123 0 0 Left 0
WINDOW 39 0 0 Left 0
SYMATTR InstName V1
SYMATTR Value 1
SYMBOL voltage 128 -128 R0
WINDOW 123 0 0 Left 0
WINDOW 39 0 0 Left 0
SYMATTR InstName V2
SYMATTR Value 2.5
SYMBOL voltage 224 272 R0
WINDOW 123 0 0 Left 0
WINDOW 39 0 0 Left 0
SYMATTR InstName V3
SYMATTR Value 2.5
SYMBOL cap 544 224 R0
SYMATTR InstName C1
SYMATTR Value 10p
TEXT -24 400 Left 2 !.tran 1us
