Version 4
SHEET 1 880 680
WIRE 128 -16 48 -16
WIRE 48 0 48 -16
WIRE 128 80 128 -16
WIRE 48 96 48 80
WIRE 48 128 -112 128
WIRE -112 144 -112 128
WIRE 304 160 208 160
WIRE 48 192 -16 192
WIRE -16 240 -16 192
WIRE 128 256 128 240
WIRE -112 272 -112 224
WIRE -16 368 -16 320
WIRE 128 368 128 336
FLAG -112 272 0
FLAG -16 368 0
FLAG 128 368 0
FLAG 48 96 0
SYMBOL voltage 48 -16 R0
WINDOW 123 0 0 Left 0
WINDOW 39 0 0 Left 0
SYMATTR InstName V1
SYMATTR Value 2.5
SYMBOL voltage -112 128 R0
WINDOW 123 0 0 Left 0
WINDOW 39 0 0 Left 0
SYMATTR InstName V2
SYMATTR Value 0
SYMBOL OPAMP 16 160 R0
SYMATTR InstName X1
SYMBOL voltage -16 224 R0
WINDOW 123 0 0 Left 0
WINDOW 39 0 0 Left 0
SYMATTR InstName V3
SYMATTR Value 0
SYMBOL voltage 128 240 R0
WINDOW 123 0 0 Left 0
WINDOW 39 0 0 Left 0
SYMATTR InstName V4
SYMATTR Value -2.5
TEXT 352 224 Left 2 !.tran 1us
