Version 4
SHEET 1 880 680
WIRE 288 -96 16 -96
WIRE 144 -32 64 -32
WIRE 64 -16 64 -32
WIRE 144 64 144 -32
WIRE 64 80 64 64
WIRE 16 112 16 -96
WIRE 64 112 16 112
WIRE 288 144 288 -96
WIRE 288 144 224 144
WIRE 480 144 288 144
WIRE 64 176 0 176
WIRE 0 288 0 176
WIRE 144 288 144 224
WIRE 0 400 0 368
WIRE 144 400 144 368
WIRE 144 400 0 400
WIRE 144 416 144 400
FLAG 64 80 0
FLAG 144 416 0
SYMBOL voltage 64 -32 R0
WINDOW 123 0 0 Left 0
WINDOW 39 0 0 Left 0
SYMATTR InstName V1
SYMATTR Value 2.5
SYMBOL voltage 144 272 R0
WINDOW 123 0 0 Left 0
WINDOW 39 0 0 Left 0
SYMATTR InstName V2
SYMATTR Value -2.5
SYMBOL voltage 0 272 R0
WINDOW 123 0 0 Left 0
WINDOW 39 0 0 Left 0
WINDOW 3 234 59 Left 2
SYMATTR Value PULSE(-500m 500m 100n 50n 50n 500n)
SYMATTR InstName V3
SYMBOL OPAMP 32 144 R0
SYMATTR InstName X1
TEXT 696 120 Left 2 !.tran 1u
