Version 4
SHEET 1 880 680
WIRE -848 -336 -912 -336
WIRE -624 -336 -768 -336
WIRE -576 -336 -624 -336
WIRE -352 -336 -496 -336
WIRE -912 -304 -912 -336
WIRE -496 -272 -576 -272
WIRE -576 -256 -576 -272
WIRE -496 -176 -496 -272
WIRE -576 -160 -576 -176
WIRE -624 -128 -624 -336
WIRE -576 -128 -624 -128
WIRE -352 -96 -352 -336
WIRE -352 -96 -416 -96
WIRE -160 -96 -352 -96
WIRE -576 -64 -640 -64
WIRE -640 -16 -640 -64
WIRE -496 0 -496 -16
WIRE -640 112 -640 64
WIRE -496 112 -496 80
FLAG -640 112 0
FLAG -496 112 0
FLAG -576 -160 0
FLAG -912 -304 0
SYMBOL res -480 -352 R90
WINDOW 0 0 56 VBottom 2
WINDOW 3 32 56 VTop 2
SYMATTR InstName R2
SYMATTR Value 5k
SYMBOL voltage -640 -32 R0
WINDOW 123 0 0 Left 0
WINDOW 39 0 0 Left 0
SYMATTR InstName V1
SYMATTR Value SINE(0 0.05 10k)
SYMBOL voltage -576 -272 R0
WINDOW 123 0 0 Left 0
WINDOW 39 0 0 Left 0
SYMATTR InstName V2
SYMATTR Value 2.5
SYMBOL voltage -496 -16 R0
WINDOW 123 0 0 Left 0
WINDOW 39 0 0 Left 0
SYMATTR InstName V3
SYMATTR Value -2.5
SYMBOL res -752 -352 R90
WINDOW 0 0 56 VBottom 2
WINDOW 3 32 56 VTop 2
SYMATTR InstName R1
SYMATTR Value 1k
SYMBOL OPAMP -608 -96 R0
SYMATTR InstName X2
TEXT -928 136 Left 2 !.tran 1m
